
/*--------------------------------*- C++ -*----------------------------------*\
| =========                 |                                                 |
| \\      /  F ield         | OpenFOAM: The Open Source CFD Toolbox           |
|  \\    /   O peration     | Version:  2.2.2                                 |
|   \\  /    A nd           | Web:      www.OpenFOAM.org                      |
|    \\/     M anipulation  |                                                 |
\*---------------------------------------------------------------------------*/
FoamFile
{
    version     2.0;
    format      ascii;
    class       dictionary;
    location    "system";
    object      BIFURCATIONdict;
}



N_mu 51;
mu_inf 2;
mu_sup 0.5;
x_cord 12;
y_cord 1.35;
field velocity;
component y;


lift snapshot;
parabolic_inlet true;
par_coefs (-20 50 0);
